PHYSICAL_PROBLEM= NAVIER_STOKES
KIND_TURB_MODEL= SA
MATH_PROBLEM= DIRECT
RESTART_SOL= YES
MACH_NUMBER= 0.8395
AOA= 3.06
SIDESLIP_ANGLE= 0.0
FREESTREAM_TEMPERATURE= 288.15
REYNOLDS_NUMBER= 11.72E6
REYNOLDS_LENGTH= 0.64607
REF_ORIGIN_MOMENT_X= 0.25
REF_ORIGIN_MOMENT_Y= 0.00
REF_ORIGIN_MOMENT_Z= 0.00
REF_LENGTH_MOMENT= 0.64607
REF_AREA= 0
REF_ELEM_LENGTH= 0.1
MARKER_HEATFLUX= ( wing, 0.0 )
MARKER_FAR= ( farfield )
MARKER_SYM= ( symmetry )
MARKER_PLOTTING= ( wing )
MARKER_MONITORING= ( wing )
NUM_METHOD_GRAD= GREEN_GAUSS
CFL_NUMBER= 4.0
CFL_ADAPT= NO
CFL_ADAPT_PARAM= ( 1.5, 0.5, 1.0, 100.0 )
RK_ALPHA_COEFF= ( 0.66667, 0.66667, 1.000000 )
EXT_ITER= 10
LINEAR_SOLVER= FGMRES
LINEAR_SOLVER_PREC= LU_SGS
LINEAR_SOLVER_ERROR= 1E-5
LINEAR_SOLVER_ITER= 10
MGLEVEL= 2
MGCYCLE= V_CYCLE
MG_PRE_SMOOTH= ( 1, 2, 3, 3 )
MG_POST_SMOOTH= ( 0, 0, 0, 0 )
MG_CORRECTION_SMOOTH= ( 0, 0, 0, 0 )
MG_DAMP_RESTRICTION= 0.7
MG_DAMP_PROLONGATION= 0.7
CONV_NUM_METHOD_FLOW= JST
SPATIAL_ORDER_FLOW= 2ND_ORDER_LIMITER
SLOPE_LIMITER_FLOW= VENKATAKRISHNAN
LIMITER_COEFF= 0.3
AD_COEFF_FLOW= ( 0.15, 0.5, 0.02 )
TIME_DISCRE_FLOW= EULER_IMPLICIT
CONV_NUM_METHOD_TURB= SCALAR_UPWIND
SPATIAL_ORDER_TURB= 1ST_ORDER
SLOPE_LIMITER_TURB= VENKATAKRISHNAN
TIME_DISCRE_TURB= EULER_IMPLICIT
OBJECTIVE_FUNCTION= DRAG
CONV_NUM_METHOD_ADJFLOW= JST
SLOPE_LIMITER_ADJFLOW= VENKATAKRISHNAN
SHARP_EDGES_COEFF= 3.0
AD_COEFF_ADJFLOW= ( 0.15, 0.0, 0.02 )
TIME_DISCRE_ADJFLOW= EULER_IMPLICIT
CFL_REDUCTION_ADJFLOW= 0.8
SENS_REMOVE_SHARP= NO
SENS_SMOOTHING= NONE
FROZEN_VISC= YES
GEO_MODE= FUNCTION
GEO_MARKER= ( wing )
GEO_AXIS_STATIONS= Y_AXIS
GEO_WING_BOUNDS= (0.0806, 1.1284)
GEO_PLOT_STATIONS= NO
DV_KIND= CAD, CAD, CAD, CAD
DV_MARKER= ( ( ( ( ( ( ( ( ( ( ( ( wing ) ) ) ) ) ) ) ) ) ) ) )
DV_PARAM= ( 0.0) ; ( 0.0) ; ( 0.0) ; ( 0.0) 
DV_VALUE= 0.0, 0.0, 0.0, 0.0
VISUALIZE_DEFORMATION= YES
CONV_CRITERIA= CAUCHY
RESIDUAL_REDUCTION= 3
RESIDUAL_MINVAL= -8
STARTCONV_ITER= 1
CAUCHY_ELEMS= 100
CAUCHY_EPS= 1E-5
CAUCHY_FUNC_FLOW= DRAG
CAUCHY_FUNC_ADJFLOW= SENS_GEOMETRY
MESH_FILENAME= mesh_ONERAM6_turb.su2
MESH_FORMAT= SU2
MESH_OUT_FILENAME= mesh_out.su2
SOLUTION_FLOW_FILENAME= solution_flow.dat
SOLUTION_ADJ_FILENAME= solution_adj.dat
OUTPUT_FORMAT= PARAVIEW
CONV_FILENAME= history_direct
RESTART_FLOW_FILENAME= restart_flow.dat
RESTART_ADJ_FILENAME= restart_adj.dat
VOLUME_FLOW_FILENAME= flow
VOLUME_ADJ_FILENAME= adjoint
GRAD_OBJFUNC_FILENAME= of_grad.dat
SURFACE_FLOW_FILENAME= surface_flow
SURFACE_ADJ_FILENAME= surface_adjoint
WRT_SOL_FREQ= 1000.0
WRT_CON_FREQ= 1
WRT_CON_FREQ_DUALTIME= 25
OPT_OBJECTIVE= DRAG * 0.02
OPT_CONSTRAINT= NONE
DEFINITION_DV= ( 26 , 1.0 | wing  | 0.0  ); ( 26 , 1.0 | wing  | 0.0  ); ( 26 , 1.0 | wing  | 0.0  ); ( 26 , 1.0 | wing  | 0.0  )
DV_VALUE_NEW= 0.0, 0.0, 0.0, 0.0
DV_VALUE_OLD= 0.0, 0.0, 0.0, 0.0
OPT_ITERATIONS= 100
OPT_ACCURACY= 1e-10
OPT_BOUND_UPPER= 10000000000.0
OPT_BOUND_LOWER= -10000000000.0
OPT_COMBINE_OBJECTIVE= NO
VALUE_OBJFUNC_FILENAME= of_eval.dat
NUMBER_PART= 1
CONSOLE= CONCISE
GRADIENT_METHOD= CONTINUOUS_ADJOINT
