PHYSICAL_PROBLEM= 0 
MATH_PROBLEM= 0 
RESTART_SOL= 0 
MACH_NUMBER= 0 
AOA= 0 
FREESTREAM_PRESSURE= 0 
FREESTREAM_TEMPERATURE= 0 
REF_ORIGIN_MOMENT_X= 0 
REF_ORIGIN_MOMENT_Y= 0 
REF_ORIGIN_MOMENT_Z= 0 
REF_LENGTH_MOMENT= 0 
REF_AREA= 0 
REF_DIMENSIONALIZATION= 0 
MARKER_EULER= 0 
MARKER_FAR= 0 
MARKER_PLOTTING= 0 
MARKER_MONITORING= 0 
MARKER_DESIGNING= 0 
NUM_METHOD_GRAD= 0 
OBJECTIVE_FUNCTION= 0 
CFL_NUMBER= 0 
CFL_ADAPT= 0 
CFL_ADAPT_PARAM= 0 
EXT_ITER= 0 
LINEAR_SOLVER= 0 
LINEAR_SOLVER_PREC= 0 
LINEAR_SOLVER_ERROR= 0 
LINEAR_SOLVER_ITER= 0 
MGLEVEL= 0 
MGCYCLE= 0 
MG_PRE_SMOOTH= 0 
MG_POST_SMOOTH= 0 
MG_CORRECTION_SMOOTH= 0 
MG_DAMP_RESTRICTION= 0 
MG_DAMP_PROLONGATION= 0 
CONV_NUM_METHOD_FLOW= 0 
SPATIAL_ORDER_FLOW= 0 
SLOPE_LIMITER_FLOW= 0 
AD_COEFF_FLOW= 0 
TIME_DISCRE_FLOW= 0 
CONV_NUM_METHOD_ADJFLOW= 0 
SPATIAL_ORDER_ADJFLOW= 0 
SLOPE_LIMITER_ADJFLOW= 0 
AD_COEFF_ADJFLOW= 0 
CFL_REDUCTION_ADJFLOW= 0 
TIME_DISCRE_ADJFLOW= 0 
DV_KIND= 0 
DV_MARKER= 0 
DV_PARAM= 0 
DV_VALUE= 0 
MOTION_FILENAME= 0 
DEFORM_LINEAR_ITER= 0 
DEFORM_NONLINEAR_ITER= 0 
DEFORM_CONSOLE_OUTPUT= 0 
DEFORM_TOL_FACTOR= 0 
DEFORM_STIFFNESS_TYPE= 0 
VISUALIZE_DEFORMATION= 0 
CONV_CRITERIA= 0 
RESIDUAL_REDUCTION= 0 
RESIDUAL_MINVAL= 0 
STARTCONV_ITER= 0 
CAUCHY_ELEMS= 0 
CAUCHY_EPS= 0 
CAUCHY_FUNC_FLOW= 0 
MESH_FILENAME= 0 
MESH_FORMAT= 0 
MESH_OUT_FILENAME= 0 
SOLUTION_FLOW_FILENAME= 0 
SOLUTION_ADJ_FILENAME= 0 
OUTPUT_FORMAT= 0 
CONV_FILENAME= 0 
RESTART_FLOW_FILENAME= 0 
RESTART_ADJ_FILENAME= 0 
VOLUME_FLOW_FILENAME= 0 
VOLUME_ADJ_FILENAME= 0 
GRAD_OBJFUNC_FILENAME= 0 
SURFACE_FLOW_FILENAME= 0 
SURFACE_ADJ_FILENAME= 0 
WRT_SOL_FREQ= 0 
WRT_CON_FREQ= 0 
OPT_OBJECTIVE= 0 
OPT_CONSTRAINT= 0 
DEFINITION_DV= 0 
DV_VALUE_NEW= 0 
DV_VALUE_OLD= 0 
OPT_ITERATIONS= 0 
OPT_ACCURACY= 0 
OPT_BOUND_UPPER= 0 
OPT_BOUND_LOWER= 0 
OPT_COMBINE_OBJECTIVE= 0 
VALUE_OBJFUNC_FILENAME= 0 
MARKER_MOTION= 0 
KIND= 0 
